<?xml version="1.0"?>
<!--
    Network developed by Ana L. C. Bazzan
    Date: 01/2015
-->

<graph>
    <node id="S"/>
    <node id="V1"/>
    <node id="V2"/>
    <node id="V3"/>
    <node id="W1"/>
    <node id="W2"/>
    <node id="W3"/>
    <node id="T"/>
    
    <edge id="SW3" from="S" to="W3" fftime="1.0" alpha="0.0"/>
    <edge id="SV3" from="S" to="V3" fftime="0.0" alpha="1.0"/>
    <edge id="SV2" from="S" to="V2" fftime="0.0" alpha="2.0"/>
    <edge id="SV1" from="S" to="V1" fftime="0.0" alpha="3.0"/>
    <edge id="V1W1" from="V1" to="W1" fftime="0.0" alpha="0.0"/>
    <edge id="V1T" from="V1" to="T" fftime="1.0" alpha="0.0"/>
    <edge id="V2W2" from="V2" to="W2" fftime="0.0" alpha="0.0"/>
    <edge id="V2W1" from="V2" to="W1" fftime="1.0" alpha="0.0"/>
    <edge id="V3W3" from="V3" to="W3" fftime="0.0" alpha="0.0"/>
    <edge id="V3W2" from="V3" to="W2" fftime="1.0" alpha="0.0"/>
    <edge id="W2T" from="W2" to="T" fftime="0.0" alpha="2.0"/>
    <edge id="W1T" from="W1" to="T" fftime="0.0" alpha="1.0"/>
    <edge id="W3T" from="W3" to="T" fftime="0.0" alpha="3.0"/>
</graph>