<?xml version="1.0"?>
<!--
    [1] K. Tumer and D. Wolpert, “Collective intelligence and Braess’ paradox,” in Proceedings of the National Conference on Artificial Intelligence, 2000, pp. 104–109.
-->
<graph>
    <node id="O"/>
    <node id="P"/>
    <node id="Q"/>
    <node id="D"/>
    
    <edge id="OP" from="O" to="P" operation="+" fftime="50"/>
    <edge id="PD" from="P" to="D" operation="*" fftime="10"/>
    <edge id="QP" from="Q" to="P" operation="+" fftime="10"/>
    <edge id="OQ" from="O" to="Q" operation="*" fftime="10"/>
    <edge id="QD" from="Q" to="D" operation="+" fftime="50"/>
</graph>