<?xml version="1.0"?>
<!--
    Nguyen, S., Dupuis, C., 1984. An efficient method for computing traffic equilibria in networks with asymmetric transportation costs. 
    Transportation Science 18, 185–202. Oppenheim
-->
<graph>
    <node id="1"/>
    <node id="2"/>
    <node id="3"/>
    <node id="4"/>
    <node id="5"/>
    <node id="6"/>
    <node id="7"/>
    <node id="8"/>
    <node id="9"/>
    <node id="10"/>
    <node id="11"/>
    <node id="12"/>
    <node id="13"/>
    
    <edge id="1" from="1" to="5" alpha="0.0125" fftime="7" length="8" />
    <edge id="2" from="5" to="1" alpha="0.0125" fftime="7" length="8" />
    <edge id="3" from="1" to="12" alpha="0.01" fftime="9" length="8" />
    <edge id="4" from="12" to="1" alpha="0.01" fftime="9" length="8" />
    <edge id="5" from="4" to="5" alpha="0.01" fftime="9" length="8" />
    <edge id="6" from="5" to="4" alpha="0.01" fftime="9" length="8" />
    <edge id="7" from="4" to="9" alpha="0.005" fftime="12" length="16" />
    <edge id="8" from="9" to="4" alpha="0.005" fftime="12" length="16" />
    <edge id="9" from="5" to="6" alpha="0.0075" fftime="3" length="8" />
    <edge id="10" from="6" to="5" alpha="0.0075" fftime="3" length="8" />
    <edge id="11" from="5" to="9" alpha="0.0075" fftime="9" length="8" />
    <edge id="12" from="9" to="5" alpha="0.0075" fftime="9" length="8" />
    <edge id="13" from="6" to="7" alpha="0.0125" fftime="5" length="8" />
    <edge id="14" from="7" to="6" alpha="0.0125" fftime="5" length="8" />
    <edge id="15" from="6" to="10" alpha="0.005" fftime="13" length="8" />
    <edge id="16" from="10" to="6" alpha="0.005" fftime="13" length="8" />
    <edge id="17" from="7" to="8" alpha="0.0125" fftime="5" length="8" />
    <edge id="18" from="8" to="7" alpha="0.0125" fftime="5" length="8" />
    <edge id="19" from="7" to="11" alpha="0.0125" fftime="9" length="8" />
    <edge id="20" from="11" to="7" alpha="0.0125" fftime="9" length="8" />
    <edge id="21" from="8" to="2" alpha="0.0125" fftime="9" length="8" />
    <edge id="22" from="2" to="8" alpha="0.0125" fftime="9" length="8" />
    <edge id="23" from="9" to="10" alpha="0.005" fftime="10" length="8" />
    <edge id="24" from="10" to="9" alpha="0.005" fftime="10" length="8" />
    <edge id="25" from="9" to="13" alpha="0.005" fftime="9" length="13" />
    <edge id="26" from="13" to="9" alpha="0.005" fftime="9" length="13" />
    <edge id="27" from="10" to="11" alpha="0.0025" fftime="6" length="8" />
    <edge id="28" from="11" to="10" alpha="0.0025" fftime="6" length="8" />
    <edge id="29" from="11" to="2" alpha="0.005" fftime="9" length="8" />
    <edge id="30" from="2" to="11" alpha="0.005" fftime="9" length="8" />
    <edge id="31" from="11" to="3" alpha="0.01" fftime="8" length="8" />
    <edge id="32" from="3" to="11" alpha="0.01" fftime="8" length="8" />
    <edge id="33" from="12" to="6" alpha="0.0025" fftime="7" length="8" />
    <edge id="34" from="6" to="12" alpha="0.0025" fftime="7" length="8" />
    <edge id="35" from="12" to="8" alpha="0.01" fftime="14" length="24" />
    <edge id="36" from="8" to="12" alpha="0.01" fftime="14" length="24" />
    <edge id="37" from="13" to="3" alpha="0.01" fftime="11" length="8" />
    <edge id="38" from="3" to="13" alpha="0.01" fftime="11" length="8" />
    
    
    
    <!-- 
    original network

   <edge id="1" from="1" to="5" alpha="0.0125" fftime="7" length="8" />
    <edge id="2" from="1" to="12" alpha="0.01" fftime="9" length="8" />
    <edge id="3" from="4" to="5" alpha="0.01" fftime="9" length="8" />
    <edge id="4" from="4" to="9" alpha="0.005" fftime="12" length="16" />
    <edge id="5" from="5" to="6" alpha="0.0075" fftime="3" length="8" />
    <edge id="6" from="5" to="9" alpha="0.0075" fftime="9" length="8" />
    <edge id="7" from="6" to="7" alpha="0.0125" fftime="5" length="8" />
    <edge id="8" from="6" to="10" alpha="0.005" fftime="13" length="8" />
    <edge id="9" from="7" to="8" alpha="0.0125" fftime="5" length="8" />
    <edge id="10" from="7" to="11" alpha="0.0125" fftime="9" length="8" />
    <edge id="11" from="8" to="2" alpha="0.0125" fftime="9" length="8" />
    <edge id="12" from="9" to="10" alpha="0.005" fftime="10" length="8" />
    <edge id="13" from="9" to="13" alpha="0.005" fftime="9" length="13" />
    <edge id="14" from="10" to="11" alpha="0.0025" fftime="6" length="8" />
    <edge id="15" from="11" to="2" alpha="0.005" fftime="9" length="8" />
    <edge id="16" from="11" to="3" alpha="0.01" fftime="8" length="8" />
    <edge id="17" from="12" to="6" alpha="0.0025" fftime="7" length="8" />
    <edge id="18" from="12" to="8" alpha="0.01" fftime="14" length="24" />
    <edge id="19" from="13" to="3" alpha="0.01" fftime="11" length="8" />-->
    
    <!--this link were inserted to solve the problem of no links in destinations 2 and 3
    <edge id="20" from="2" to="11" alpha="0.005" fftime="9" length="8" />
    <edge id="21" from="3" to="11" alpha="0.01" fftime="8" length="8" />--> 
</graph>