<?xml version="1.0"?>
<graph>
    <node id="1"/>
    <node id="2"/>
    <node id="3"/>
    <node id="4"/>
    <node id="5"/>
    <node id="6"/>
    <node id="7"/>
    <node id="8"/>
    <node id="9"/>
    <node id="10"/>
    <node id="11"/>
    <node id="12"/>
    <node id="13"/>
    
    <edge id="1" from="1" to="5" alpha="0.0125" fftime="7" />
    <edge id="2" from="1" to="12" alpha="0.01" fftime="9" />
    <edge id="3" from="4" to="5" alpha="0.01" fftime="9" />
    <edge id="4" from="4" to="9" alpha="0.005" fftime="12" />
    <edge id="5" from="5" to="6" alpha="0.0075" fftime="3" />
    <edge id="6" from="5" to="9" alpha="0.0075" fftime="9" />
    <edge id="7" from="6" to="7" alpha="0.0125" fftime="5" />
    <edge id="8" from="6" to="10" alpha="0.005" fftime="13" />
    <edge id="9" from="7" to="8" alpha="0.0125" fftime="5" />
    <edge id="10" from="7" to="11" alpha="0.0125" fftime="9" />
    <edge id="11" from="8" to="2" alpha="0.0125" fftime="9" />
    <edge id="12" from="9" to="10" alpha="0.005" fftime="10" />
    <edge id="13" from="9" to="13" alpha="0.005" fftime="9" />
    <edge id="14" from="10" to="11" alpha="0.0025" fftime="6" />
    <edge id="15" from="11" to="2" alpha="0.005" fftime="9" />
    <edge id="16" from="11" to="3" alpha="0.01" fftime="8" />
    <edge id="17" from="12" to="6" alpha="0.0025" fftime="7" />
    <edge id="18" from="12" to="8" alpha="0.01" fftime="14" />
    <edge id="19" from="13" to="3" alpha="0.01" fftime="11" />
</graph>