<?xml version="1.0"?>
<!--
    Created by Ana L. C. Bazzan. 04/01/2017
    function BraessG (f) m*f+n

-->
<graph>
    <node id="s1"/>
    <node id="s2"/>
    <node id="p1"/>
    <node id="m"/>
    <node id="p2"/>
    <node id="q1"/>
    <node id="n"/>
    <node id="q2"/>
    <node id="d1"/>
    <node id="d2"/>
        
    
    <!--   regular links-->
    <edge id="s1-p1" from="s1" to="p1" ffttime="5" alpha="0.0"/>
    <edge id="s1-m" from="s1" to="m" ffttime="0.0" alpha="0.0"/>
    <edge id="s2-m" from="s2" to="m" ffttime="0.0" alpha="0.0"/>
    <edge id="s2-p2" from="s2" to="p2" ffttime="0.0" alpha="0.0"/>
    <edge id="p1-q1" from="p1" to="q1" ffttime="0" alpha="0.1"/>
    <edge id="m-n" from="m" to="n" ffttime="0.0" alpha="0.1"/>
    <edge id="p2-q2" from="p2" to="q2" ffttime="0.0" alpha="0.1"/>
    <edge id="q1-d1" from="q1" to="d1" ffttime="25" alpha="0.0"/>
    <edge id="n-d1" from="n" to="d1" ffttime="0.0" alpha="0.0"/>
    <edge id="n-d2" from="n" to="d2" ffttime="0.0" alpha="0.0"/>
    <edge id="q2-d2" from="q2" to="d2" ffttime="15" alpha="0.0"/>
    <!--diagonal  links-->        
    <edge id="q1-m" from="q1" to="m" ffttime="0.0" alpha="0.01"/>
    <edge id="q2-m" from="q2" to="m" ffttime="0.0" alpha="0.01"/>
</graph>